/*--------------------------------*- C++ -*----------------------------------*\
  =========                 |
  \\      /  F ield         | OpenFOAM: The Open Source CFD Toolbox
   \\    /   O peration     | Website:  https://openfoam.org
    \\  /    A nd           | Version:  7
     \\/     M anipulation  |
\*---------------------------------------------------------------------------*/
FoamFile
{
    version     2.0;
    format      ascii;
    class       dictionary;
    location    "system";
    object      funkySetFieldsDict;
}
// * * * * * * * * * * * * * * * * * * * * * * * * * * * * * * * * * * * * * //

expressions
 (
TGV_U  
    {
     field U; 
     expression "vector(50*sin(pos().x/0.001)*cos(pos().y/0.001)*cos(pos().z/0.001),-50*cos(pos().x/0.001)*sin(pos().y/0.001)*cos(pos().z/0.001),0)"; 
     keepPatches 1; 
    }
 );


// ************************************************************************* //
