/*--------------------------------*- C++ -*----------------------------------*\
  =========                 |
  \\      /  F ield         | OpenFOAM: The Open Source CFD Toolbox
   \\    /   O peration     | Website:  https://openfoam.org
    \\  /    A nd           | Version:  7
     \\/     M anipulation  |
\*---------------------------------------------------------------------------*/
FoamFile
{
    version     2.0;
    format      ascii;
    class       dictionary;
    location    "system";
    object      fvSchemes;
}
// * * * * * * * * * * * * * * * * * * * * * * * * * * * * * * * * * * * * * //

ddtSchemes
{
    default         Euler;
}

gradSchemes
{
    default         Gauss linear;
}

divSchemes
{
    default             none;

    div(phi,U)          Gauss limitedLinearV 1;
    div(phi,Yi)         Gauss limitedLinear01 1;
    div(phi,ha)          Gauss limitedLinear 1;
    div(phi,K)          Gauss limitedLinear 1;
    div(phid,p)         Gauss limitedLinear 1;
    div(phi,epsilon)    Gauss limitedLinear 1;
    div(phi,Yi_h)       Gauss limitedLinear01 1;
    div(phi,k)          Gauss limitedLinear 1;
    div(hDiffCorrFlux)  Gauss linear;
    div(((rho*nuEff)*dev2(T(grad(U)))))     Gauss linear;
    div(phi,scalarUW)   Gauss limitedLinear 1;
    div(phi,Z)          Gauss limitedLinear 1;
    div(phi,He)         Gauss limitedLinear 1;
    div(phi,Zvar)       Gauss limitedLinear 1;
    div(phi,c)          Gauss limitedLinear 1;
    div(phi,cvar)         Gauss limitedLinear 1;
    div(phi,Zcvar)       Gauss limitedLinear 1;
}

laplacianSchemes
{
    default         Gauss linear orthogonal;
}

interpolationSchemes
{
    default         linear;
}

snGradSchemes
{
    default         orthogonal;
}

fluxRequired
{
    default         no;
    p               ;
}

wallDist
{
    method meshWave;
}

// ************************************************************************* //
