/*--------------------------------*- C++ -*----------------------------------*\
  =========                 |
  \\      /  F ield         | OpenFOAM: The Open Source CFD Toolbox
   \\    /   O peration     | Website:  https://openfoam.org
    \\  /    A nd           | Version:  7
     \\/     M anipulation  |
\*---------------------------------------------------------------------------*/
FoamFile
{
    version         2;
    format          ascii;
    class           dictionary;
    location        "system";
    object          controlDict;
}

application     dfLowMachFoam;

startFrom       latestTime;

startTime       0;

stopAt          endTime;

endTime         0.4;

deltaT          1e-05;

writeControl    adjustableRunTime;

writeInterval   0.02;

purgeWrite      0;

writeFormat     binary;

writePrecision  10;

writeCompression off;

timeFormat      general;

timePrecision   10;

runTimeModifiable false;

adjustTimeStep  no;

maxCo           0.2;


// ************************************************************************* //
